Version 4
SHEET 1 880 680
WIRE -464 16 -880 16
WIRE -352 16 -464 16
WIRE -464 96 -464 16
WIRE -304 128 -416 128
WIRE -352 160 -352 16
WIRE -416 176 -416 128
WIRE -384 176 -416 176
WIRE -304 192 -304 128
WIRE -304 192 -320 192
WIRE -272 192 -304 192
WIRE -160 192 -192 192
WIRE -128 192 -160 192
WIRE -16 192 -48 192
WIRE 16 192 -16 192
WIRE 48 192 16 192
WIRE -704 208 -784 208
WIRE -608 208 -624 208
WIRE -592 208 -608 208
WIRE -464 208 -464 176
WIRE -464 208 -528 208
WIRE -384 208 -464 208
WIRE -880 240 -880 16
WIRE -784 240 -784 208
WIRE -464 240 -464 208
WIRE -160 256 -160 192
WIRE -16 256 -16 192
WIRE -880 384 -880 320
WIRE -784 384 -784 320
WIRE -464 384 -464 320
WIRE -352 384 -352 224
WIRE -160 384 -160 320
WIRE -16 384 -16 320
FLAG -464 384 0
FLAG -784 384 0
FLAG -352 384 0
FLAG -880 384 0
FLAG -160 384 0
FLAG -16 384 0
FLAG -608 208 vin
FLAG 16 192 vout
SYMBOL voltage -784 224 R0
WINDOW 123 24 124 Left 2
WINDOW 39 0 0 Left 0
SYMATTR InstName V1
SYMATTR Value 2
SYMATTR Value2 AC 1 0
SYMBOL res -608 192 R90
WINDOW 0 0 56 VBottom 2
WINDOW 3 32 56 VTop 2
SYMATTR InstName R1
SYMATTR Value 50
SYMBOL cap -528 192 R90
WINDOW 0 0 32 VBottom 2
WINDOW 3 32 32 VTop 2
SYMATTR InstName C1
SYMATTR Value 1”
SYMBOL res -480 224 R0
SYMATTR InstName R2
SYMATTR Value 100
SYMBOL OpAmps\\UniversalOpAmp -352 192 R0
SYMATTR InstName U1
SYMATTR Value2 Avol=1Meg GBW=100Meg Vos=0
SYMBOL res -480 80 R0
SYMATTR InstName R3
SYMATTR Value 100
SYMBOL voltage -880 224 R0
WINDOW 123 0 0 Left 0
WINDOW 39 0 0 Left 0
SYMATTR InstName V2
SYMATTR Value 3.3
SYMBOL res -176 176 R90
WINDOW 0 0 56 VBottom 2
WINDOW 3 32 56 VTop 2
SYMATTR InstName R4
SYMATTR Value 10
SYMBOL res -32 176 R90
WINDOW 0 0 56 VBottom 2
WINDOW 3 32 56 VTop 2
SYMATTR InstName R5
SYMATTR Value 10
SYMBOL cap -176 256 R0
SYMATTR InstName C2
SYMATTR Value 220p
SYMBOL cap -32 256 R0
SYMATTR InstName C3
SYMATTR Value 220p
TEXT -914 408 Left 2 !.ac dec 100 1k 100Meg
